data_image0
_chemical_formula_structural       Pt36O2C5H4
_chemical_formula_sum              "Pt36 O2 C5 H4"
_cell_length_a       8.30921
_cell_length_b       8.30921
_cell_length_c       26.7844
_cell_angle_alpha    90
_cell_angle_beta     90
_cell_angle_gamma    60

_space_group_name_H-M_alt    "P 1"
_space_group_IT_number       1

loop_
  _space_group_symop_operation_xyz
  'x, y, z'

loop_
  _atom_site_type_symbol
  _atom_site_label
  _atom_site_symmetry_multiplicity
  _atom_site_fract_x
  _atom_site_fract_y
  _atom_site_fract_z
  _atom_site_occupancy
  Pt  Pt1       1.0  0.16667  0.27787  0.33975  1.0000
  Pt  Pt2       1.0  0.50000  0.27787  0.33975  1.0000
  Pt  Pt3       1.0  0.83333  0.27787  0.33975  1.0000
  Pt  Pt4       1.0  0.16667  0.61121  0.33975  1.0000
  Pt  Pt5       1.0  0.50000  0.61121  0.33975  1.0000
  Pt  Pt6       1.0  0.83333  0.61121  0.33975  1.0000
  Pt  Pt7       1.0  0.16667  0.94454  0.33975  1.0000
  Pt  Pt8       1.0  0.50000  0.94454  0.33975  1.0000
  Pt  Pt9       1.0  0.83333  0.94454  0.33975  1.0000
  Pt  Pt10      1.0  0.27778  0.38898  0.42418  1.0000
  Pt  Pt11      1.0  0.61111  0.38898  0.42418  1.0000
  Pt  Pt12      1.0  0.94444  0.38898  0.42418  1.0000
  Pt  Pt13      1.0  0.27778  0.72232  0.42418  1.0000
  Pt  Pt14      1.0  0.61111  0.72232  0.42418  1.0000
  Pt  Pt15      1.0  0.94444  0.72232  0.42418  1.0000
  Pt  Pt16      1.0  0.27778  0.05565  0.42418  1.0000
  Pt  Pt17      1.0  0.61111  0.05565  0.42418  1.0000
  Pt  Pt18      1.0  0.94444  0.05565  0.42418  1.0000
  Pt  Pt19      1.0  0.05645  0.49740  0.50890  1.0000
  Pt  Pt20      1.0  0.39071  0.49784  0.50888  1.0000
  Pt  Pt21      1.0  0.72245  0.49996  0.50806  1.0000
  Pt  Pt22      1.0  0.05664  0.83161  0.50668  1.0000
  Pt  Pt23      1.0  0.39179  0.83469  0.50967  1.0000
  Pt  Pt24      1.0  0.71863  0.83463  0.50968  1.0000
  Pt  Pt25      1.0  0.05728  0.16607  0.50794  1.0000
  Pt  Pt26      1.0  0.38931  0.16659  0.50981  1.0000
  Pt  Pt27      1.0  0.72172  0.16634  0.50808  1.0000
  Pt  Pt28      1.0  0.15988  0.27855  0.59736  1.0000
  Pt  Pt29      1.0  0.50460  0.27944  0.59692  1.0000
  Pt  Pt30      1.0  0.83506  0.27607  0.59291  1.0000
  Pt  Pt31      1.0  0.16762  0.60934  0.59331  1.0000
  Pt  Pt32      1.0  0.50170  0.60970  0.59414  1.0000
  Pt  Pt33      1.0  0.83448  0.60874  0.59412  1.0000
  Pt  Pt34      1.0  0.16446  0.93956  0.59242  1.0000
  Pt  Pt35      1.0  0.50095  0.94438  0.60113  1.0000
  Pt  Pt36      1.0  0.84125  0.93916  0.59239  1.0000
  O   O1        1.0  0.30186  0.33215  0.68928  1.0000
  O   O2        1.0  0.77216  0.20182  0.70796  1.0000
  C   C1        1.0  0.49104  0.22859  0.67469  1.0000
  C   C2        1.0  0.54312  0.02900  0.67552  1.0000
  C   C3        1.0  0.37165  0.02745  0.67528  1.0000
  C   C4        1.0  0.22003  0.22572  0.67383  1.0000
  C   C5        1.0  0.60647  0.29945  0.69797  1.0000
  H   H1        1.0  0.67538  0.92310  0.69095  1.0000
  H   H2        1.0  0.34996  0.91788  0.69028  1.0000
  H   H3        1.0  0.09091  0.26679  0.69422  1.0000
  H   H4        1.0  0.52770  0.45214  0.70522  1.0000
