data_image0
_chemical_formula_structural       Pt16O2C5H4
_chemical_formula_sum              "Pt16 O2 C5 H4"
_cell_length_a       5.53947
_cell_length_b       4.79733
_cell_length_c       26.7844
_cell_angle_alpha    90
_cell_angle_beta     90
_cell_angle_gamma    90

_space_group_name_H-M_alt    "P 1"
_space_group_IT_number       1

loop_
  _space_group_symop_operation_xyz
  'x, y, z'

loop_
  _atom_site_type_symbol
  _atom_site_label
  _atom_site_symmetry_multiplicity
  _atom_site_fract_x
  _atom_site_fract_y
  _atom_site_fract_z
  _atom_site_occupancy
  Pt  Pt1       1.0  0.14509  0.41681  0.33975  1.0000
  Pt  Pt2       1.0  0.64509  0.41681  0.33975  1.0000
  Pt  Pt3       1.0  0.39509  0.91681  0.33975  1.0000
  Pt  Pt4       1.0  0.89509  0.91681  0.33975  1.0000
  Pt  Pt5       1.0  0.39509  0.58348  0.42418  1.0000
  Pt  Pt6       1.0  0.89509  0.58348  0.42418  1.0000
  Pt  Pt7       1.0  0.14509  0.08348  0.42418  1.0000
  Pt  Pt8       1.0  0.64509  0.08348  0.42418  1.0000
  Pt  Pt9       1.0  0.15161  0.75129  0.50804  1.0000
  Pt  Pt10      1.0  0.64944  0.74908  0.50811  1.0000
  Pt  Pt11      1.0  0.39756  0.25769  0.51075  1.0000
  Pt  Pt12      1.0  0.89757  0.25406  0.50745  1.0000
  Pt  Pt13      1.0  0.16216  0.42001  0.59692  1.0000
  Pt  Pt14      1.0  0.66220  0.41583  0.59883  1.0000
  Pt  Pt15      1.0  0.41066  0.91803  0.59327  1.0000
  Pt  Pt16      1.0  0.90846  0.92359  0.59014  1.0000
  O   O1        1.0  0.48184  0.30682  0.72825  1.0000
  O   O2        1.0  0.05134  0.43016  0.67033  1.0000
  C   C1        1.0  0.70703  0.24939  0.70919  1.0000
  C   C2        1.0  0.80294  0.01991  0.73321  1.0000
  C   C3        1.0  0.62701  0.93201  0.76870  1.0000
  C   C4        1.0  0.43594  0.11201  0.76408  1.0000
  C   C5        1.0  0.80804  0.44607  0.67361  1.0000
  H   H1        1.0  0.97879  0.92971  0.72546  1.0000
  H   H2        1.0  0.63762  0.75480  0.79379  1.0000
  H   H3        1.0  0.26156  0.12935  0.78227  1.0000
  H   H4        1.0  0.73150  0.65861  0.67781  1.0000
