data_image0
_chemical_formula_structural       Pd64O2C5H6
_chemical_formula_sum              "Pd64 O2 C5 H6"
_cell_length_a       10.9913
_cell_length_b       10.9913
_cell_length_c       26.7307
_cell_angle_alpha    90
_cell_angle_beta     90
_cell_angle_gamma    60

_space_group_name_H-M_alt    "P 1"
_space_group_IT_number       1

loop_
  _space_group_symop_operation_xyz
  'x, y, z'

loop_
  _atom_site_type_symbol
  _atom_site_label
  _atom_site_symmetry_multiplicity
  _atom_site_fract_x
  _atom_site_fract_y
  _atom_site_fract_z
  _atom_site_occupancy
  Pd  Pd1       1.0  0.12500  0.20974  0.33669  1.0000
  Pd  Pd2       1.0  0.37500  0.20974  0.33669  1.0000
  Pd  Pd3       1.0  0.62500  0.20974  0.33669  1.0000
  Pd  Pd4       1.0  0.87500  0.20974  0.33669  1.0000
  Pd  Pd5       1.0  0.12500  0.45974  0.33669  1.0000
  Pd  Pd6       1.0  0.37500  0.45974  0.33669  1.0000
  Pd  Pd7       1.0  0.62500  0.45974  0.33669  1.0000
  Pd  Pd8       1.0  0.87500  0.45974  0.33669  1.0000
  Pd  Pd9       1.0  0.12500  0.70974  0.33669  1.0000
  Pd  Pd10      1.0  0.37500  0.70974  0.33669  1.0000
  Pd  Pd11      1.0  0.62500  0.70974  0.33669  1.0000
  Pd  Pd12      1.0  0.87500  0.70974  0.33669  1.0000
  Pd  Pd13      1.0  0.12500  0.95974  0.33669  1.0000
  Pd  Pd14      1.0  0.37500  0.95974  0.33669  1.0000
  Pd  Pd15      1.0  0.62500  0.95974  0.33669  1.0000
  Pd  Pd16      1.0  0.87500  0.95974  0.33669  1.0000
  Pd  Pd17      1.0  0.20833  0.29307  0.42062  1.0000
  Pd  Pd18      1.0  0.45833  0.29307  0.42062  1.0000
  Pd  Pd19      1.0  0.70833  0.29307  0.42062  1.0000
  Pd  Pd20      1.0  0.95833  0.29307  0.42062  1.0000
  Pd  Pd21      1.0  0.20833  0.54307  0.42062  1.0000
  Pd  Pd22      1.0  0.45833  0.54307  0.42062  1.0000
  Pd  Pd23      1.0  0.70833  0.54307  0.42062  1.0000
  Pd  Pd24      1.0  0.95833  0.54307  0.42062  1.0000
  Pd  Pd25      1.0  0.20833  0.79307  0.42062  1.0000
  Pd  Pd26      1.0  0.45833  0.79307  0.42062  1.0000
  Pd  Pd27      1.0  0.70833  0.79307  0.42062  1.0000
  Pd  Pd28      1.0  0.95833  0.79307  0.42062  1.0000
  Pd  Pd29      1.0  0.20833  0.04307  0.42062  1.0000
  Pd  Pd30      1.0  0.45833  0.04307  0.42062  1.0000
  Pd  Pd31      1.0  0.70833  0.04307  0.42062  1.0000
  Pd  Pd32      1.0  0.95833  0.04307  0.42062  1.0000
  Pd  Pd33      1.0  0.04202  0.37591  0.50372  1.0000
  Pd  Pd34      1.0  0.29124  0.37643  0.50449  1.0000
  Pd  Pd35      1.0  0.54113  0.37777  0.50573  1.0000
  Pd  Pd36      1.0  0.79109  0.37654  0.50463  1.0000
  Pd  Pd37      1.0  0.04125  0.62660  0.50423  1.0000
  Pd  Pd38      1.0  0.29203  0.62474  0.50529  1.0000
  Pd  Pd39      1.0  0.54254  0.62463  0.50553  1.0000
  Pd  Pd40      1.0  0.79105  0.62729  0.50390  1.0000
  Pd  Pd41      1.0  0.04095  0.87673  0.50416  1.0000
  Pd  Pd42      1.0  0.29172  0.87563  0.50421  1.0000
  Pd  Pd43      1.0  0.54133  0.87696  0.50414  1.0000
  Pd  Pd44      1.0  0.79113  0.87709  0.50423  1.0000
  Pd  Pd45      1.0  0.04075  0.12641  0.50411  1.0000
  Pd  Pd46      1.0  0.29168  0.12595  0.50397  1.0000
  Pd  Pd47      1.0  0.54214  0.12834  0.50539  1.0000
  Pd  Pd48      1.0  0.78877  0.12843  0.50557  1.0000
  Pd  Pd49      1.0  0.12472  0.20926  0.58935  1.0000
  Pd  Pd50      1.0  0.37147  0.20763  0.58846  1.0000
  Pd  Pd51      1.0  0.62163  0.21348  0.59372  1.0000
  Pd  Pd52      1.0  0.87936  0.20798  0.58903  1.0000
  Pd  Pd53      1.0  0.12222  0.45991  0.58933  1.0000
  Pd  Pd54      1.0  0.36804  0.46051  0.59234  1.0000
  Pd  Pd55      1.0  0.62914  0.46224  0.59371  1.0000
  Pd  Pd56      1.0  0.87714  0.46049  0.58787  1.0000
  Pd  Pd57      1.0  0.12252  0.71120  0.58936  1.0000
  Pd  Pd58      1.0  0.37337  0.71103  0.58903  1.0000
  Pd  Pd59      1.0  0.62468  0.71173  0.58919  1.0000
  Pd  Pd60      1.0  0.87381  0.71078  0.58941  1.0000
  Pd  Pd61      1.0  0.12454  0.95928  0.58938  1.0000
  Pd  Pd62      1.0  0.37461  0.95919  0.58950  1.0000
  Pd  Pd63      1.0  0.62415  0.95989  0.58930  1.0000
  Pd  Pd64      1.0  0.87445  0.95965  0.58922  1.0000
  O   O1        1.0  0.46142  0.52083  0.68163  1.0000
  O   O2        1.0  0.82308  0.44045  0.70413  1.0000
  C   C1        1.0  0.60692  0.45414  0.67343  1.0000
  C   C2        1.0  0.66087  0.30431  0.67067  1.0000
  C   C3        1.0  0.54245  0.28305  0.66861  1.0000
  C   C4        1.0  0.41763  0.42383  0.66836  1.0000
  C   C5        1.0  0.67529  0.52266  0.70272  1.0000
  H   H1        1.0  0.76788  0.22772  0.68151  1.0000
  H   H2        1.0  0.54070  0.19067  0.68262  1.0000
  H   H3        1.0  0.31996  0.44752  0.68727  1.0000
  H   H4        1.0  0.63721  0.63016  0.68809  1.0000
  H   H5        1.0  0.63873  0.53279  0.74181  1.0000
  H   H6        1.0  0.86009  0.44392  0.67052  1.0000
