data_image0
_chemical_formula_structural       Ag64O2C5H6
_chemical_formula_sum              "Ag64 O2 C5 H6"
_cell_length_a       11.5174
_cell_length_b       11.5174
_cell_length_c       27.0529
_cell_angle_alpha    90
_cell_angle_beta     90
_cell_angle_gamma    60

_space_group_name_H-M_alt    "P 1"
_space_group_IT_number       1

loop_
  _space_group_symop_operation_xyz
  'x, y, z'

loop_
  _atom_site_type_symbol
  _atom_site_label
  _atom_site_symmetry_multiplicity
  _atom_site_fract_x
  _atom_site_fract_y
  _atom_site_fract_z
  _atom_site_occupancy
  Ag  Ag1       1.0  0.17537  0.20206  0.33638  1.0000
  Ag  Ag2       1.0  0.42537  0.20206  0.33638  1.0000
  Ag  Ag3       1.0  0.67537  0.20206  0.33638  1.0000
  Ag  Ag4       1.0  0.92537  0.20206  0.33638  1.0000
  Ag  Ag5       1.0  0.17537  0.45206  0.33638  1.0000
  Ag  Ag6       1.0  0.42537  0.45206  0.33638  1.0000
  Ag  Ag7       1.0  0.67537  0.45206  0.33638  1.0000
  Ag  Ag8       1.0  0.92537  0.45206  0.33638  1.0000
  Ag  Ag9       1.0  0.17537  0.70206  0.33638  1.0000
  Ag  Ag10      1.0  0.42537  0.70206  0.33638  1.0000
  Ag  Ag11      1.0  0.67537  0.70206  0.33638  1.0000
  Ag  Ag12      1.0  0.92537  0.70206  0.33638  1.0000
  Ag  Ag13      1.0  0.17537  0.95206  0.33638  1.0000
  Ag  Ag14      1.0  0.42537  0.95206  0.33638  1.0000
  Ag  Ag15      1.0  0.67537  0.95206  0.33638  1.0000
  Ag  Ag16      1.0  0.92537  0.95206  0.33638  1.0000
  Ag  Ag17      1.0  0.25870  0.28539  0.42328  1.0000
  Ag  Ag18      1.0  0.50870  0.28539  0.42328  1.0000
  Ag  Ag19      1.0  0.75870  0.28539  0.42328  1.0000
  Ag  Ag20      1.0  0.00870  0.28539  0.42328  1.0000
  Ag  Ag21      1.0  0.25870  0.53539  0.42328  1.0000
  Ag  Ag22      1.0  0.50870  0.53539  0.42328  1.0000
  Ag  Ag23      1.0  0.75870  0.53539  0.42328  1.0000
  Ag  Ag24      1.0  0.00870  0.53539  0.42328  1.0000
  Ag  Ag25      1.0  0.25870  0.78539  0.42328  1.0000
  Ag  Ag26      1.0  0.50870  0.78539  0.42328  1.0000
  Ag  Ag27      1.0  0.75870  0.78539  0.42328  1.0000
  Ag  Ag28      1.0  0.00870  0.78539  0.42328  1.0000
  Ag  Ag29      1.0  0.25870  0.03539  0.42328  1.0000
  Ag  Ag30      1.0  0.50870  0.03539  0.42328  1.0000
  Ag  Ag31      1.0  0.75870  0.03539  0.42328  1.0000
  Ag  Ag32      1.0  0.00870  0.03539  0.42328  1.0000
  Ag  Ag33      1.0  0.09201  0.36827  0.50942  1.0000
  Ag  Ag34      1.0  0.34153  0.36853  0.50950  1.0000
  Ag  Ag35      1.0  0.59131  0.36838  0.50930  1.0000
  Ag  Ag36      1.0  0.84232  0.36805  0.50924  1.0000
  Ag  Ag37      1.0  0.09173  0.61850  0.50951  1.0000
  Ag  Ag38      1.0  0.34179  0.61846  0.50958  1.0000
  Ag  Ag39      1.0  0.59168  0.61881  0.50923  1.0000
  Ag  Ag40      1.0  0.84190  0.61850  0.50942  1.0000
  Ag  Ag41      1.0  0.09195  0.86831  0.50946  1.0000
  Ag  Ag42      1.0  0.34185  0.86843  0.50954  1.0000
  Ag  Ag43      1.0  0.59179  0.86863  0.50938  1.0000
  Ag  Ag44      1.0  0.84203  0.86822  0.50955  1.0000
  Ag  Ag45      1.0  0.09210  0.11830  0.50953  1.0000
  Ag  Ag46      1.0  0.34179  0.11817  0.50933  1.0000
  Ag  Ag47      1.0  0.59177  0.11818  0.50933  1.0000
  Ag  Ag48      1.0  0.84219  0.11827  0.50937  1.0000
  Ag  Ag49      1.0  0.17531  0.20132  0.59727  1.0000
  Ag  Ag50      1.0  0.42478  0.20100  0.59674  1.0000
  Ag  Ag51      1.0  0.67547  0.20080  0.59615  1.0000
  Ag  Ag52      1.0  0.92563  0.20091  0.59707  1.0000
  Ag  Ag53      1.0  0.17425  0.45152  0.59750  1.0000
  Ag  Ag54      1.0  0.42386  0.45145  0.59704  1.0000
  Ag  Ag55      1.0  0.67509  0.45122  0.59539  1.0000
  Ag  Ag56      1.0  0.92511  0.45144  0.59670  1.0000
  Ag  Ag57      1.0  0.17473  0.70150  0.59722  1.0000
  Ag  Ag58      1.0  0.42531  0.70111  0.59731  1.0000
  Ag  Ag59      1.0  0.67491  0.70180  0.59687  1.0000
  Ag  Ag60      1.0  0.92485  0.70122  0.59762  1.0000
  Ag  Ag61      1.0  0.17526  0.95120  0.59732  1.0000
  Ag  Ag62      1.0  0.42521  0.95122  0.59734  1.0000
  Ag  Ag63      1.0  0.67508  0.95143  0.59736  1.0000
  Ag  Ag64      1.0  0.92513  0.95132  0.59733  1.0000
  O   O1        1.0  0.51739  0.52422  0.71728  1.0000
  O   O2        1.0  0.87210  0.40353  0.70679  1.0000
  C   C1        1.0  0.65359  0.43859  0.71655  1.0000
  C   C2        1.0  0.68111  0.30842  0.71360  1.0000
  C   C3        1.0  0.55402  0.31372  0.71234  1.0000
  C   C4        1.0  0.45802  0.44639  0.71443  1.0000
  C   C5        1.0  0.73860  0.50204  0.72051  1.0000
  H   H1        1.0  0.78041  0.22035  0.71251  1.0000
  H   H2        1.0  0.53633  0.22969  0.70985  1.0000
  H   H3        1.0  0.34934  0.50016  0.71498  1.0000
  H   H4        1.0  0.69740  0.59073  0.69580  1.0000
  H   H5        1.0  0.73573  0.53781  0.75876  1.0000
  H   H6        1.0  0.92749  0.44563  0.70680  1.0000
