data_image0
_chemical_formula_structural       Ir64O2C5H4
_chemical_formula_sum              "Ir64 O2 C5 H4"
_cell_length_a       10.8555
_cell_length_b       10.8555
_cell_length_c       26.6476
_cell_angle_alpha    90
_cell_angle_beta     90
_cell_angle_gamma    60

_space_group_name_H-M_alt    "P 1"
_space_group_IT_number       1

loop_
  _space_group_symop_operation_xyz
  'x, y, z'

loop_
  _atom_site_type_symbol
  _atom_site_label
  _atom_site_symmetry_multiplicity
  _atom_site_fract_x
  _atom_site_fract_y
  _atom_site_fract_z
  _atom_site_occupancy
  Ir  Ir1       1.0  0.07188  0.04167  0.33774  1.0000
  Ir  Ir2       1.0  0.32188  0.04167  0.33774  1.0000
  Ir  Ir3       1.0  0.57188  0.04167  0.33774  1.0000
  Ir  Ir4       1.0  0.82188  0.04167  0.33774  1.0000
  Ir  Ir5       1.0  0.07188  0.29167  0.33774  1.0000
  Ir  Ir6       1.0  0.32188  0.29167  0.33774  1.0000
  Ir  Ir7       1.0  0.57188  0.29167  0.33774  1.0000
  Ir  Ir8       1.0  0.82188  0.29167  0.33774  1.0000
  Ir  Ir9       1.0  0.07188  0.54167  0.33774  1.0000
  Ir  Ir10      1.0  0.32188  0.54167  0.33774  1.0000
  Ir  Ir11      1.0  0.57188  0.54167  0.33774  1.0000
  Ir  Ir12      1.0  0.82188  0.54167  0.33774  1.0000
  Ir  Ir13      1.0  0.07188  0.79167  0.33774  1.0000
  Ir  Ir14      1.0  0.32188  0.79167  0.33774  1.0000
  Ir  Ir15      1.0  0.57188  0.79167  0.33774  1.0000
  Ir  Ir16      1.0  0.82188  0.79167  0.33774  1.0000
  Ir  Ir17      1.0  0.15521  0.12500  0.42090  1.0000
  Ir  Ir18      1.0  0.40521  0.12500  0.42090  1.0000
  Ir  Ir19      1.0  0.65521  0.12500  0.42090  1.0000
  Ir  Ir20      1.0  0.90521  0.12500  0.42090  1.0000
  Ir  Ir21      1.0  0.15521  0.37500  0.42090  1.0000
  Ir  Ir22      1.0  0.40521  0.37500  0.42090  1.0000
  Ir  Ir23      1.0  0.65521  0.37500  0.42090  1.0000
  Ir  Ir24      1.0  0.90521  0.37500  0.42090  1.0000
  Ir  Ir25      1.0  0.15521  0.62500  0.42090  1.0000
  Ir  Ir26      1.0  0.40521  0.62500  0.42090  1.0000
  Ir  Ir27      1.0  0.65521  0.62500  0.42090  1.0000
  Ir  Ir28      1.0  0.90521  0.62500  0.42090  1.0000
  Ir  Ir29      1.0  0.15521  0.87500  0.42090  1.0000
  Ir  Ir30      1.0  0.40521  0.87500  0.42090  1.0000
  Ir  Ir31      1.0  0.65521  0.87500  0.42090  1.0000
  Ir  Ir32      1.0  0.90521  0.87500  0.42090  1.0000
  Ir  Ir33      1.0  0.98851  0.20822  0.50275  1.0000
  Ir  Ir34      1.0  0.23861  0.20825  0.50277  1.0000
  Ir  Ir35      1.0  0.48898  0.20882  0.50356  1.0000
  Ir  Ir36      1.0  0.73762  0.20876  0.50359  1.0000
  Ir  Ir37      1.0  0.98850  0.45837  0.50293  1.0000
  Ir  Ir38      1.0  0.23888  0.45818  0.50294  1.0000
  Ir  Ir39      1.0  0.48923  0.45714  0.50380  1.0000
  Ir  Ir40      1.0  0.73836  0.45819  0.50294  1.0000
  Ir  Ir41      1.0  0.98854  0.70829  0.50290  1.0000
  Ir  Ir42      1.0  0.23866  0.70834  0.50273  1.0000
  Ir  Ir43      1.0  0.48835  0.70840  0.50272  1.0000
  Ir  Ir44      1.0  0.73852  0.70829  0.50290  1.0000
  Ir  Ir45      1.0  0.98856  0.95841  0.50276  1.0000
  Ir  Ir46      1.0  0.23853  0.95824  0.50284  1.0000
  Ir  Ir47      1.0  0.48837  0.95837  0.50273  1.0000
  Ir  Ir48      1.0  0.73837  0.95870  0.50293  1.0000
  Ir  Ir49      1.0  0.07188  0.04168  0.58519  1.0000
  Ir  Ir50      1.0  0.32184  0.04165  0.58518  1.0000
  Ir  Ir51      1.0  0.57222  0.03961  0.58491  1.0000
  Ir  Ir52      1.0  0.82339  0.03977  0.58501  1.0000
  Ir  Ir53      1.0  0.07190  0.29146  0.58520  1.0000
  Ir  Ir54      1.0  0.31978  0.29203  0.58501  1.0000
  Ir  Ir55      1.0  0.57151  0.29204  0.58795  1.0000
  Ir  Ir56      1.0  0.82341  0.29212  0.58503  1.0000
  Ir  Ir57      1.0  0.07170  0.54180  0.58525  1.0000
  Ir  Ir58      1.0  0.31969  0.54337  0.58512  1.0000
  Ir  Ir59      1.0  0.57232  0.54322  0.58512  1.0000
  Ir  Ir60      1.0  0.82193  0.54179  0.58527  1.0000
  Ir  Ir61      1.0  0.07185  0.79180  0.58520  1.0000
  Ir  Ir62      1.0  0.32179  0.79171  0.58523  1.0000
  Ir  Ir63      1.0  0.57158  0.79172  0.58522  1.0000
  Ir  Ir64      1.0  0.82184  0.79158  0.58522  1.0000
  O   O1        1.0  0.52928  0.44551  0.78533  1.0000
  O   O2        1.0  0.57315  0.27723  0.66728  1.0000
  C   C1        1.0  0.55113  0.34028  0.75122  1.0000
  C   C2        1.0  0.56742  0.22171  0.77661  1.0000
  C   C3        1.0  0.55516  0.25536  0.82834  1.0000
  C   C4        1.0  0.53222  0.39182  0.83153  1.0000
  C   C5        1.0  0.55132  0.37130  0.69934  1.0000
  H   H1        1.0  0.58524  0.12399  0.75892  1.0000
  H   H2        1.0  0.56200  0.18813  0.85963  1.0000
  H   H3        1.0  0.51640  0.46218  0.86285  1.0000
  H   H4        1.0  0.53180  0.47749  0.68787  1.0000
