data_image0
_chemical_formula_structural       Ru64O2C5H4
_chemical_formula_sum              "Ru64 O2 C5 H4"
_cell_length_a       10.776
_cell_length_b       10.776
_cell_length_c       26.366
_cell_angle_alpha    90
_cell_angle_beta     90
_cell_angle_gamma    60

_space_group_name_H-M_alt    "P 1"
_space_group_IT_number       1

loop_
  _space_group_symop_operation_xyz
  'x, y, z'

loop_
  _atom_site_type_symbol
  _atom_site_label
  _atom_site_symmetry_multiplicity
  _atom_site_fract_x
  _atom_site_fract_y
  _atom_site_fract_z
  _atom_site_occupancy
  Ru  Ru1       1.0  0.08333  0.37976  0.34514  1.0000
  Ru  Ru2       1.0  0.33333  0.37976  0.34514  1.0000
  Ru  Ru3       1.0  0.58333  0.37976  0.34514  1.0000
  Ru  Ru4       1.0  0.83333  0.37976  0.34514  1.0000
  Ru  Ru5       1.0  0.08333  0.62976  0.34514  1.0000
  Ru  Ru6       1.0  0.33333  0.62976  0.34514  1.0000
  Ru  Ru7       1.0  0.58333  0.62976  0.34514  1.0000
  Ru  Ru8       1.0  0.83333  0.62976  0.34514  1.0000
  Ru  Ru9       1.0  0.08333  0.87976  0.34514  1.0000
  Ru  Ru10      1.0  0.33333  0.87976  0.34514  1.0000
  Ru  Ru11      1.0  0.58333  0.87976  0.34514  1.0000
  Ru  Ru12      1.0  0.83333  0.87976  0.34514  1.0000
  Ru  Ru13      1.0  0.08333  0.12976  0.34514  1.0000
  Ru  Ru14      1.0  0.33333  0.12976  0.34514  1.0000
  Ru  Ru15      1.0  0.58333  0.12976  0.34514  1.0000
  Ru  Ru16      1.0  0.83333  0.12976  0.34514  1.0000
  Ru  Ru17      1.0  0.16667  0.21309  0.42562  1.0000
  Ru  Ru18      1.0  0.41667  0.21309  0.42562  1.0000
  Ru  Ru19      1.0  0.66667  0.21309  0.42562  1.0000
  Ru  Ru20      1.0  0.91667  0.21309  0.42562  1.0000
  Ru  Ru21      1.0  0.16667  0.46309  0.42562  1.0000
  Ru  Ru22      1.0  0.41667  0.46309  0.42562  1.0000
  Ru  Ru23      1.0  0.66667  0.46309  0.42562  1.0000
  Ru  Ru24      1.0  0.91667  0.46309  0.42562  1.0000
  Ru  Ru25      1.0  0.16667  0.71309  0.42562  1.0000
  Ru  Ru26      1.0  0.41667  0.71309  0.42562  1.0000
  Ru  Ru27      1.0  0.66667  0.71309  0.42562  1.0000
  Ru  Ru28      1.0  0.91667  0.71309  0.42562  1.0000
  Ru  Ru29      1.0  0.16667  0.96309  0.42562  1.0000
  Ru  Ru30      1.0  0.41667  0.96309  0.42562  1.0000
  Ru  Ru31      1.0  0.66667  0.96309  0.42562  1.0000
  Ru  Ru32      1.0  0.91667  0.96309  0.42562  1.0000
  Ru  Ru33      1.0  0.08304  0.37989  0.50618  1.0000
  Ru  Ru34      1.0  0.33344  0.37996  0.50624  1.0000
  Ru  Ru35      1.0  0.58327  0.38001  0.50612  1.0000
  Ru  Ru36      1.0  0.83340  0.37965  0.50603  1.0000
  Ru  Ru37      1.0  0.08319  0.62998  0.50605  1.0000
  Ru  Ru38      1.0  0.33337  0.62962  0.50582  1.0000
  Ru  Ru39      1.0  0.58362  0.62956  0.50627  1.0000
  Ru  Ru40      1.0  0.83321  0.62976  0.50585  1.0000
  Ru  Ru41      1.0  0.08315  0.87973  0.50601  1.0000
  Ru  Ru42      1.0  0.33345  0.87950  0.50616  1.0000
  Ru  Ru43      1.0  0.58341  0.87955  0.50611  1.0000
  Ru  Ru44      1.0  0.83350  0.87959  0.50602  1.0000
  Ru  Ru45      1.0  0.08302  0.12984  0.50623  1.0000
  Ru  Ru46      1.0  0.33327  0.12988  0.50588  1.0000
  Ru  Ru47      1.0  0.58354  0.12981  0.50625  1.0000
  Ru  Ru48      1.0  0.83325  0.13006  0.50587  1.0000
  Ru  Ru49      1.0  0.16616  0.21349  0.58449  1.0000
  Ru  Ru50      1.0  0.41695  0.21336  0.58449  1.0000
  Ru  Ru51      1.0  0.66611  0.21040  0.58428  1.0000
  Ru  Ru52      1.0  0.91946  0.21069  0.58439  1.0000
  Ru  Ru53      1.0  0.16626  0.46356  0.58454  1.0000
  Ru  Ru54      1.0  0.41411  0.46265  0.58437  1.0000
  Ru  Ru55      1.0  0.66616  0.46375  0.58683  1.0000
  Ru  Ru56      1.0  0.91871  0.46300  0.58437  1.0000
  Ru  Ru57      1.0  0.16740  0.71290  0.58463  1.0000
  Ru  Ru58      1.0  0.41413  0.71618  0.58425  1.0000
  Ru  Ru59      1.0  0.66661  0.71548  0.58440  1.0000
  Ru  Ru60      1.0  0.91617  0.71267  0.58471  1.0000
  Ru  Ru61      1.0  0.16620  0.96284  0.58455  1.0000
  Ru  Ru62      1.0  0.41693  0.96234  0.58452  1.0000
  Ru  Ru63      1.0  0.66720  0.96246  0.58456  1.0000
  Ru  Ru64      1.0  0.91628  0.96362  0.58460  1.0000
  O   O1        1.0  0.58868  0.58864  0.79085  1.0000
  O   O2        1.0  0.65875  0.44663  0.66570  1.0000
  C   C1        1.0  0.61104  0.49364  0.75177  1.0000
  C   C2        1.0  0.60193  0.37816  0.77043  1.0000
  C   C3        1.0  0.57302  0.40317  0.82296  1.0000
  C   C4        1.0  0.56615  0.53157  0.83337  1.0000
  C   C5        1.0  0.63426  0.53111  0.70238  1.0000
  H   H1        1.0  0.61392  0.28845  0.74785  1.0000
  H   H2        1.0  0.55828  0.33572  0.85003  1.0000
  H   H3        1.0  0.54665  0.59390  0.86780  1.0000
  H   H4        1.0  0.62812  0.63572  0.69672  1.0000
