data_image0
_chemical_formula_structural       Cu36O2C5H4
_chemical_formula_sum              "Cu36 O2 C5 H4"
_cell_length_a       7.56675
_cell_length_b       7.56675
_cell_length_c       26.1782
_cell_angle_alpha    90
_cell_angle_beta     90
_cell_angle_gamma    60

_space_group_name_H-M_alt    "P 1"
_space_group_IT_number       1

loop_
  _space_group_symop_operation_xyz
  'x, y, z'

loop_
  _atom_site_type_symbol
  _atom_site_label
  _atom_site_symmetry_multiplicity
  _atom_site_fract_x
  _atom_site_fract_y
  _atom_site_fract_z
  _atom_site_occupancy
  Cu  Cu1       1.0  0.16786  0.29969  0.34762  1.0000
  Cu  Cu2       1.0  0.50120  0.29969  0.34762  1.0000
  Cu  Cu3       1.0  0.83453  0.29969  0.34762  1.0000
  Cu  Cu4       1.0  0.16786  0.63302  0.34762  1.0000
  Cu  Cu5       1.0  0.50120  0.63302  0.34762  1.0000
  Cu  Cu6       1.0  0.83453  0.63302  0.34762  1.0000
  Cu  Cu7       1.0  0.16786  0.96635  0.34762  1.0000
  Cu  Cu8       1.0  0.50120  0.96635  0.34762  1.0000
  Cu  Cu9       1.0  0.83453  0.96635  0.34762  1.0000
  Cu  Cu10      1.0  0.27897  0.41080  0.42629  1.0000
  Cu  Cu11      1.0  0.61231  0.41080  0.42629  1.0000
  Cu  Cu12      1.0  0.94564  0.41080  0.42629  1.0000
  Cu  Cu13      1.0  0.27897  0.74413  0.42629  1.0000
  Cu  Cu14      1.0  0.61231  0.74413  0.42629  1.0000
  Cu  Cu15      1.0  0.94564  0.74413  0.42629  1.0000
  Cu  Cu16      1.0  0.27897  0.07747  0.42629  1.0000
  Cu  Cu17      1.0  0.61231  0.07747  0.42629  1.0000
  Cu  Cu18      1.0  0.94564  0.07747  0.42629  1.0000
  Cu  Cu19      1.0  0.05666  0.52165  0.50496  1.0000
  Cu  Cu20      1.0  0.39003  0.52146  0.50497  1.0000
  Cu  Cu21      1.0  0.72389  0.52170  0.50489  1.0000
  Cu  Cu22      1.0  0.05669  0.85514  0.50490  1.0000
  Cu  Cu23      1.0  0.38990  0.85536  0.50470  1.0000
  Cu  Cu24      1.0  0.72363  0.85475  0.50500  1.0000
  Cu  Cu25      1.0  0.05701  0.18803  0.50470  1.0000
  Cu  Cu26      1.0  0.38998  0.18878  0.50486  1.0000
  Cu  Cu27      1.0  0.72325  0.18846  0.50489  1.0000
  Cu  Cu28      1.0  0.16781  0.29871  0.58382  1.0000
  Cu  Cu29      1.0  0.50150  0.29936  0.58397  1.0000
  Cu  Cu30      1.0  0.83576  0.29838  0.58365  1.0000
  Cu  Cu31      1.0  0.16671  0.63326  0.58369  1.0000
  Cu  Cu32      1.0  0.50193  0.63383  0.58293  1.0000
  Cu  Cu33      1.0  0.83529  0.63308  0.58437  1.0000
  Cu  Cu34      1.0  0.16811  0.96609  0.58424  1.0000
  Cu  Cu35      1.0  0.50080  0.96691  0.58386  1.0000
  Cu  Cu36      1.0  0.83450  0.96659  0.58419  1.0000
  O   O1        1.0  0.28740  0.71993  0.70248  1.0000
  O   O2        1.0  0.79834  0.62471  0.69859  1.0000
  C   C1        1.0  0.49794  0.60323  0.69987  1.0000
  C   C2        1.0  0.55519  0.39826  0.69694  1.0000
  C   C3        1.0  0.37211  0.39023  0.69678  1.0000
  C   C4        1.0  0.21357  0.58967  0.69972  1.0000
  C   C5        1.0  0.60941  0.71102  0.69958  1.0000
  H   H1        1.0  0.71113  0.27238  0.69450  1.0000
  H   H2        1.0  0.35517  0.25625  0.69405  1.0000
  H   H3        1.0  0.04865  0.65583  0.70106  1.0000
  H   H4        1.0  0.51267  0.88066  0.69971  1.0000
