data_image0
_chemical_formula_structural       Ni64O2C5H5
_chemical_formula_sum              "Ni64 O2 C5 H5"
_cell_length_a       9.83444
_cell_length_b       9.83444
_cell_length_c       26.0223
_cell_angle_alpha    90
_cell_angle_beta     90
_cell_angle_gamma    60

_space_group_name_H-M_alt    "P 1"
_space_group_IT_number       1

loop_
  _space_group_symop_operation_xyz
  'x, y, z'

loop_
  _atom_site_type_symbol
  _atom_site_label
  _atom_site_symmetry_multiplicity
  _atom_site_fract_x
  _atom_site_fract_y
  _atom_site_fract_z
  _atom_site_occupancy
  Ni  Ni1       1.0  0.02310  0.04167  0.34586  1.0000
  Ni  Ni2       1.0  0.27310  0.04167  0.34586  1.0000
  Ni  Ni3       1.0  0.52310  0.04167  0.34586  1.0000
  Ni  Ni4       1.0  0.77310  0.04167  0.34586  1.0000
  Ni  Ni5       1.0  0.02310  0.29167  0.34586  1.0000
  Ni  Ni6       1.0  0.27310  0.29167  0.34586  1.0000
  Ni  Ni7       1.0  0.52310  0.29167  0.34586  1.0000
  Ni  Ni8       1.0  0.77310  0.29167  0.34586  1.0000
  Ni  Ni9       1.0  0.02310  0.54167  0.34586  1.0000
  Ni  Ni10      1.0  0.27310  0.54167  0.34586  1.0000
  Ni  Ni11      1.0  0.52310  0.54167  0.34586  1.0000
  Ni  Ni12      1.0  0.77310  0.54167  0.34586  1.0000
  Ni  Ni13      1.0  0.02310  0.79167  0.34586  1.0000
  Ni  Ni14      1.0  0.27310  0.79167  0.34586  1.0000
  Ni  Ni15      1.0  0.52310  0.79167  0.34586  1.0000
  Ni  Ni16      1.0  0.77310  0.79167  0.34586  1.0000
  Ni  Ni17      1.0  0.10643  0.12500  0.42300  1.0000
  Ni  Ni18      1.0  0.35643  0.12500  0.42300  1.0000
  Ni  Ni19      1.0  0.60643  0.12500  0.42300  1.0000
  Ni  Ni20      1.0  0.85643  0.12500  0.42300  1.0000
  Ni  Ni21      1.0  0.10643  0.37500  0.42300  1.0000
  Ni  Ni22      1.0  0.35643  0.37500  0.42300  1.0000
  Ni  Ni23      1.0  0.60643  0.37500  0.42300  1.0000
  Ni  Ni24      1.0  0.85643  0.37500  0.42300  1.0000
  Ni  Ni25      1.0  0.10643  0.62500  0.42300  1.0000
  Ni  Ni26      1.0  0.35643  0.62500  0.42300  1.0000
  Ni  Ni27      1.0  0.60643  0.62500  0.42300  1.0000
  Ni  Ni28      1.0  0.85643  0.62500  0.42300  1.0000
  Ni  Ni29      1.0  0.10643  0.87500  0.42300  1.0000
  Ni  Ni30      1.0  0.35643  0.87500  0.42300  1.0000
  Ni  Ni31      1.0  0.60643  0.87500  0.42300  1.0000
  Ni  Ni32      1.0  0.85643  0.87500  0.42300  1.0000
  Ni  Ni33      1.0  0.94005  0.20960  0.49982  1.0000
  Ni  Ni34      1.0  0.19045  0.21058  0.50087  1.0000
  Ni  Ni35      1.0  0.43744  0.20963  0.50045  1.0000
  Ni  Ni36      1.0  0.68997  0.20812  0.49961  1.0000
  Ni  Ni37      1.0  0.93996  0.45917  0.50066  1.0000
  Ni  Ni38      1.0  0.18924  0.45891  0.50096  1.0000
  Ni  Ni39      1.0  0.44201  0.45713  0.49920  1.0000
  Ni  Ni40      1.0  0.68797  0.45941  0.50119  1.0000
  Ni  Ni41      1.0  0.94121  0.70599  0.50070  1.0000
  Ni  Ni42      1.0  0.19066  0.70706  0.49942  1.0000
  Ni  Ni43      1.0  0.44056  0.70665  0.50022  1.0000
  Ni  Ni44      1.0  0.69006  0.70764  0.49985  1.0000
  Ni  Ni45      1.0  0.94057  0.95759  0.49981  1.0000
  Ni  Ni46      1.0  0.18960  0.95929  0.49945  1.0000
  Ni  Ni47      1.0  0.43956  0.95808  0.49965  1.0000
  Ni  Ni48      1.0  0.69002  0.95798  0.49977  1.0000
  Ni  Ni49      1.0  0.02290  0.04253  0.57703  1.0000
  Ni  Ni50      1.0  0.27395  0.04093  0.57653  1.0000
  Ni  Ni51      1.0  0.52516  0.03795  0.57630  1.0000
  Ni  Ni52      1.0  0.77500  0.03974  0.57682  1.0000
  Ni  Ni53      1.0  0.02136  0.29102  0.57684  1.0000
  Ni  Ni54      1.0  0.27340  0.29240  0.58253  1.0000
  Ni  Ni55      1.0  0.52897  0.28552  0.57574  1.0000
  Ni  Ni56      1.0  0.77394  0.29069  0.57664  1.0000
  Ni  Ni57      1.0  0.01964  0.54418  0.58324  1.0000
  Ni  Ni58      1.0  0.28109  0.54140  0.57583  1.0000
  Ni  Ni59      1.0  0.51906  0.54459  0.58449  1.0000
  Ni  Ni60      1.0  0.77069  0.54214  0.57763  1.0000
  Ni  Ni61      1.0  0.02322  0.79287  0.57618  1.0000
  Ni  Ni62      1.0  0.27162  0.79697  0.57541  1.0000
  Ni  Ni63      1.0  0.52376  0.79162  0.57704  1.0000
  Ni  Ni64      1.0  0.77285  0.79133  0.57698  1.0000
  O   O1        1.0  0.16057  0.61041  0.66789  1.0000
  O   O2        1.0  0.57077  0.43106  0.68343  1.0000
  C   C1        1.0  0.31498  0.50414  0.65231  1.0000
  C   C2        1.0  0.33745  0.34517  0.65198  1.0000
  C   C3        1.0  0.18146  0.36557  0.65563  1.0000
  C   C4        1.0  0.07179  0.53423  0.65771  1.0000
  C   C5        1.0  0.43775  0.54597  0.65659  1.0000
  H   H1        1.0  0.44409  0.24546  0.66730  1.0000
  H   H2        1.0  0.15350  0.28007  0.67164  1.0000
  H   H3        1.0  0.96453  0.58597  0.68067  1.0000
  H   H4        1.0  0.39351  0.66688  0.67033  1.0000
  H   H5        1.0  0.66264  0.43412  0.67000  1.0000
