data_image0
_chemical_formula_structural       Au64O2C5H6
_chemical_formula_sum              "Au64 O2 C5 H6"
_cell_length_a       11.5937
_cell_length_b       11.5937
_cell_length_c       27.0997
_cell_angle_alpha    90
_cell_angle_beta     90
_cell_angle_gamma    60

_space_group_name_H-M_alt    "P 1"
_space_group_IT_number       1

loop_
  _space_group_symop_operation_xyz
  'x, y, z'

loop_
  _atom_site_type_symbol
  _atom_site_label
  _atom_site_symmetry_multiplicity
  _atom_site_fract_x
  _atom_site_fract_y
  _atom_site_fract_z
  _atom_site_occupancy
  Au  Au1       1.0  0.12500  0.04167  0.36901  1.0000
  Au  Au2       1.0  0.37500  0.04167  0.36901  1.0000
  Au  Au3       1.0  0.62500  0.04167  0.36901  1.0000
  Au  Au4       1.0  0.87500  0.04167  0.36901  1.0000
  Au  Au5       1.0  0.12500  0.29167  0.36901  1.0000
  Au  Au6       1.0  0.37500  0.29167  0.36901  1.0000
  Au  Au7       1.0  0.62500  0.29167  0.36901  1.0000
  Au  Au8       1.0  0.87500  0.29167  0.36901  1.0000
  Au  Au9       1.0  0.12500  0.54167  0.36901  1.0000
  Au  Au10      1.0  0.37500  0.54167  0.36901  1.0000
  Au  Au11      1.0  0.62500  0.54167  0.36901  1.0000
  Au  Au12      1.0  0.87500  0.54167  0.36901  1.0000
  Au  Au13      1.0  0.12500  0.79167  0.36901  1.0000
  Au  Au14      1.0  0.37500  0.79167  0.36901  1.0000
  Au  Au15      1.0  0.62500  0.79167  0.36901  1.0000
  Au  Au16      1.0  0.87500  0.79167  0.36901  1.0000
  Au  Au17      1.0  0.20833  0.12500  0.45634  1.0000
  Au  Au18      1.0  0.45833  0.12500  0.45634  1.0000
  Au  Au19      1.0  0.70833  0.12500  0.45634  1.0000
  Au  Au20      1.0  0.95833  0.12500  0.45634  1.0000
  Au  Au21      1.0  0.20833  0.37500  0.45634  1.0000
  Au  Au22      1.0  0.45833  0.37500  0.45634  1.0000
  Au  Au23      1.0  0.70833  0.37500  0.45634  1.0000
  Au  Au24      1.0  0.95833  0.37500  0.45634  1.0000
  Au  Au25      1.0  0.20833  0.62500  0.45634  1.0000
  Au  Au26      1.0  0.45833  0.62500  0.45634  1.0000
  Au  Au27      1.0  0.70833  0.62500  0.45634  1.0000
  Au  Au28      1.0  0.95833  0.62500  0.45634  1.0000
  Au  Au29      1.0  0.20833  0.87500  0.45634  1.0000
  Au  Au30      1.0  0.45833  0.87500  0.45634  1.0000
  Au  Au31      1.0  0.70833  0.87500  0.45634  1.0000
  Au  Au32      1.0  0.95833  0.87500  0.45634  1.0000
  Au  Au33      1.0  0.04167  0.20833  0.54276  1.0000
  Au  Au34      1.0  0.29167  0.20833  0.54276  1.0000
  Au  Au35      1.0  0.54167  0.20833  0.54276  1.0000
  Au  Au36      1.0  0.79167  0.20833  0.54276  1.0000
  Au  Au37      1.0  0.04167  0.45833  0.54276  1.0000
  Au  Au38      1.0  0.29167  0.45833  0.54276  1.0000
  Au  Au39      1.0  0.54167  0.45833  0.54276  1.0000
  Au  Au40      1.0  0.79167  0.45833  0.54276  1.0000
  Au  Au41      1.0  0.04167  0.70833  0.54276  1.0000
  Au  Au42      1.0  0.29167  0.70833  0.54276  1.0000
  Au  Au43      1.0  0.54167  0.70833  0.54276  1.0000
  Au  Au44      1.0  0.79167  0.70833  0.54276  1.0000
  Au  Au45      1.0  0.04167  0.95833  0.54276  1.0000
  Au  Au46      1.0  0.29167  0.95833  0.54276  1.0000
  Au  Au47      1.0  0.54167  0.95833  0.54276  1.0000
  Au  Au48      1.0  0.79167  0.95833  0.54276  1.0000
  Au  Au49      1.0  0.12500  0.04167  0.63155  1.0000
  Au  Au50      1.0  0.37500  0.04167  0.63155  1.0000
  Au  Au51      1.0  0.62500  0.04167  0.63155  1.0000
  Au  Au52      1.0  0.87500  0.04167  0.63155  1.0000
  Au  Au53      1.0  0.12500  0.29167  0.63155  1.0000
  Au  Au54      1.0  0.37500  0.29167  0.63155  1.0000
  Au  Au55      1.0  0.62500  0.29167  0.63155  1.0000
  Au  Au56      1.0  0.87500  0.29167  0.63155  1.0000
  Au  Au57      1.0  0.12500  0.54167  0.63155  1.0000
  Au  Au58      1.0  0.37500  0.54167  0.63155  1.0000
  Au  Au59      1.0  0.62500  0.54167  0.63155  1.0000
  Au  Au60      1.0  0.87500  0.54167  0.63155  1.0000
  Au  Au61      1.0  0.12500  0.79167  0.63155  1.0000
  Au  Au62      1.0  0.37500  0.79167  0.63155  1.0000
  Au  Au63      1.0  0.62500  0.79167  0.63155  1.0000
  Au  Au64      1.0  0.87500  0.79167  0.63155  1.0000
  O   O1        1.0  0.45825  0.39497  0.74130  1.0000
  O   O2        1.0  0.23418  0.75128  0.73246  1.0000
  C   C1        1.0  0.41939  0.52905  0.73865  1.0000
  C   C2        1.0  0.53306  0.54192  0.73455  1.0000
  C   C3        1.0  0.64345  0.41163  0.73377  1.0000
  C   C4        1.0  0.59311  0.32595  0.73666  1.0000
  C   C5        1.0  0.28289  0.62155  0.74034  1.0000
  H   H1        1.0  0.53442  0.63481  0.73286  1.0000
  H   H2        1.0  0.74779  0.38250  0.73002  1.0000
  H   H3        1.0  0.63958  0.21821  0.73738  1.0000
  H   H4        1.0  0.19931  0.56601  0.67862  1.0000
  H   H5        1.0  0.21180  0.59514  0.75521  1.0000
  H   H6        1.0  0.28763  0.76810  0.70745  1.0000
