data_image0
_chemical_formula_structural       Co64O2C5H6
_chemical_formula_sum              "Co64 O2 C5 H6"
_cell_length_a       9.86
_cell_length_b       9.86
_cell_length_c       25.9925
_cell_angle_alpha    90
_cell_angle_beta     90
_cell_angle_gamma    60

_space_group_name_H-M_alt    "P 1"
_space_group_IT_number       1

loop_
  _space_group_symop_operation_xyz
  'x, y, z'

loop_
  _atom_site_type_symbol
  _atom_site_label
  _atom_site_symmetry_multiplicity
  _atom_site_fract_x
  _atom_site_fract_y
  _atom_site_fract_z
  _atom_site_occupancy
  Co  Co1       1.0  0.08333  0.20833  0.38473  1.0000
  Co  Co2       1.0  0.33333  0.20833  0.38473  1.0000
  Co  Co3       1.0  0.58333  0.20833  0.38473  1.0000
  Co  Co4       1.0  0.83333  0.20833  0.38473  1.0000
  Co  Co5       1.0  0.08333  0.45833  0.38473  1.0000
  Co  Co6       1.0  0.33333  0.45833  0.38473  1.0000
  Co  Co7       1.0  0.58333  0.45833  0.38473  1.0000
  Co  Co8       1.0  0.83333  0.45833  0.38473  1.0000
  Co  Co9       1.0  0.08333  0.70833  0.38473  1.0000
  Co  Co10      1.0  0.33333  0.70833  0.38473  1.0000
  Co  Co11      1.0  0.58333  0.70833  0.38473  1.0000
  Co  Co12      1.0  0.83333  0.70833  0.38473  1.0000
  Co  Co13      1.0  0.08333  0.95833  0.38473  1.0000
  Co  Co14      1.0  0.33333  0.95833  0.38473  1.0000
  Co  Co15      1.0  0.58333  0.95833  0.38473  1.0000
  Co  Co16      1.0  0.83333  0.95833  0.38473  1.0000
  Co  Co17      1.0  0.16667  0.04167  0.46158  1.0000
  Co  Co18      1.0  0.41667  0.04167  0.46158  1.0000
  Co  Co19      1.0  0.66667  0.04167  0.46158  1.0000
  Co  Co20      1.0  0.91667  0.04167  0.46158  1.0000
  Co  Co21      1.0  0.16667  0.29167  0.46158  1.0000
  Co  Co22      1.0  0.41667  0.29167  0.46158  1.0000
  Co  Co23      1.0  0.66667  0.29167  0.46158  1.0000
  Co  Co24      1.0  0.91667  0.29167  0.46158  1.0000
  Co  Co25      1.0  0.16667  0.54167  0.46158  1.0000
  Co  Co26      1.0  0.41667  0.54167  0.46158  1.0000
  Co  Co27      1.0  0.66667  0.54167  0.46158  1.0000
  Co  Co28      1.0  0.91667  0.54167  0.46158  1.0000
  Co  Co29      1.0  0.16667  0.79167  0.46158  1.0000
  Co  Co30      1.0  0.41667  0.79167  0.46158  1.0000
  Co  Co31      1.0  0.66667  0.79167  0.46158  1.0000
  Co  Co32      1.0  0.91667  0.79167  0.46158  1.0000
  Co  Co33      1.0  0.08333  0.20833  0.54038  1.0000
  Co  Co34      1.0  0.33333  0.20833  0.54038  1.0000
  Co  Co35      1.0  0.58333  0.20833  0.54038  1.0000
  Co  Co36      1.0  0.83333  0.20833  0.54038  1.0000
  Co  Co37      1.0  0.08333  0.45833  0.54038  1.0000
  Co  Co38      1.0  0.33333  0.45833  0.54038  1.0000
  Co  Co39      1.0  0.58333  0.45833  0.54038  1.0000
  Co  Co40      1.0  0.83333  0.45833  0.54038  1.0000
  Co  Co41      1.0  0.08333  0.70833  0.54038  1.0000
  Co  Co42      1.0  0.33333  0.70833  0.54038  1.0000
  Co  Co43      1.0  0.58333  0.70833  0.54038  1.0000
  Co  Co44      1.0  0.83333  0.70833  0.54038  1.0000
  Co  Co45      1.0  0.08333  0.95833  0.54038  1.0000
  Co  Co46      1.0  0.33333  0.95833  0.54038  1.0000
  Co  Co47      1.0  0.58333  0.95833  0.54038  1.0000
  Co  Co48      1.0  0.83333  0.95833  0.54038  1.0000
  Co  Co49      1.0  0.16667  0.04167  0.61540  1.0000
  Co  Co50      1.0  0.41667  0.04167  0.61540  1.0000
  Co  Co51      1.0  0.66667  0.04167  0.61540  1.0000
  Co  Co52      1.0  0.91667  0.04167  0.61540  1.0000
  Co  Co53      1.0  0.16667  0.29167  0.61540  1.0000
  Co  Co54      1.0  0.41667  0.29167  0.61540  1.0000
  Co  Co55      1.0  0.66667  0.29167  0.61540  1.0000
  Co  Co56      1.0  0.91667  0.29167  0.61540  1.0000
  Co  Co57      1.0  0.16667  0.54167  0.61540  1.0000
  Co  Co58      1.0  0.41667  0.54167  0.61540  1.0000
  Co  Co59      1.0  0.66667  0.54167  0.61540  1.0000
  Co  Co60      1.0  0.91667  0.54167  0.61540  1.0000
  Co  Co61      1.0  0.16667  0.79167  0.61540  1.0000
  Co  Co62      1.0  0.41667  0.79167  0.61540  1.0000
  Co  Co63      1.0  0.66667  0.79167  0.61540  1.0000
  Co  Co64      1.0  0.91667  0.79167  0.61540  1.0000
  O   O1        1.0  0.45790  0.47305  0.68888  1.0000
  O   O2        1.0  0.88046  0.32786  0.69535  1.0000
  C   C1        1.0  0.62194  0.37041  0.68026  1.0000
  C   C2        1.0  0.65400  0.21042  0.67872  1.0000
  C   C3        1.0  0.50074  0.21754  0.67978  1.0000
  C   C4        1.0  0.38379  0.38133  0.68071  1.0000
  C   C5        1.0  0.71787  0.42702  0.70855  1.0000
  H   H1        1.0  0.75958  0.11449  0.69586  1.0000
  H   H2        1.0  0.48373  0.12673  0.69740  1.0000
  H   H3        1.0  0.27154  0.43216  0.70059  1.0000
  H   H4        1.0  0.72974  0.58567  0.67095  1.0000
  H   H5        1.0  0.70402  0.42109  0.75056  1.0000
  H   H6        1.0  0.93005  0.39276  0.69194  1.0000
