data_image0
_chemical_formula_structural       Pd36O2C5H4
_chemical_formula_sum              "Pd36 O2 C5 H4"
_cell_length_a       8.24345
_cell_length_b       8.24345
_cell_length_c       26.7307
_cell_angle_alpha    90
_cell_angle_beta     90
_cell_angle_gamma    60

_space_group_name_H-M_alt    "P 1"
_space_group_IT_number       1

loop_
  _space_group_symop_operation_xyz
  'x, y, z'

loop_
  _atom_site_type_symbol
  _atom_site_label
  _atom_site_symmetry_multiplicity
  _atom_site_fract_x
  _atom_site_fract_y
  _atom_site_fract_z
  _atom_site_occupancy
  Pd  Pd1       1.0  0.16667  0.27965  0.33669  1.0000
  Pd  Pd2       1.0  0.50000  0.27965  0.33669  1.0000
  Pd  Pd3       1.0  0.83333  0.27965  0.33669  1.0000
  Pd  Pd4       1.0  0.16667  0.61298  0.33669  1.0000
  Pd  Pd5       1.0  0.50000  0.61298  0.33669  1.0000
  Pd  Pd6       1.0  0.83333  0.61298  0.33669  1.0000
  Pd  Pd7       1.0  0.16667  0.94631  0.33669  1.0000
  Pd  Pd8       1.0  0.50000  0.94631  0.33669  1.0000
  Pd  Pd9       1.0  0.83333  0.94631  0.33669  1.0000
  Pd  Pd10      1.0  0.27778  0.39076  0.42062  1.0000
  Pd  Pd11      1.0  0.61111  0.39076  0.42062  1.0000
  Pd  Pd12      1.0  0.94444  0.39076  0.42062  1.0000
  Pd  Pd13      1.0  0.27778  0.72409  0.42062  1.0000
  Pd  Pd14      1.0  0.61111  0.72409  0.42062  1.0000
  Pd  Pd15      1.0  0.94444  0.72409  0.42062  1.0000
  Pd  Pd16      1.0  0.27778  0.05743  0.42062  1.0000
  Pd  Pd17      1.0  0.61111  0.05743  0.42062  1.0000
  Pd  Pd18      1.0  0.94444  0.05743  0.42062  1.0000
  Pd  Pd19      1.0  0.05430  0.50321  0.50489  1.0000
  Pd  Pd20      1.0  0.38757  0.50377  0.50489  1.0000
  Pd  Pd21      1.0  0.72279  0.50245  0.50399  1.0000
  Pd  Pd22      1.0  0.05551  0.83419  0.50494  1.0000
  Pd  Pd23      1.0  0.38902  0.83607  0.50431  1.0000
  Pd  Pd24      1.0  0.72264  0.83453  0.50472  1.0000
  Pd  Pd25      1.0  0.05533  0.16901  0.50320  1.0000
  Pd  Pd26      1.0  0.39001  0.17075  0.50498  1.0000
  Pd  Pd27      1.0  0.71899  0.17019  0.50487  1.0000
  Pd  Pd28      1.0  0.16345  0.27800  0.58828  1.0000
  Pd  Pd29      1.0  0.49721  0.28518  0.59388  1.0000
  Pd  Pd30      1.0  0.83777  0.27607  0.58757  1.0000
  Pd  Pd31      1.0  0.15913  0.61512  0.59259  1.0000
  Pd  Pd32      1.0  0.50028  0.61911  0.58895  1.0000
  Pd  Pd33      1.0  0.83223  0.61331  0.59134  1.0000
  Pd  Pd34      1.0  0.16454  0.94823  0.58832  1.0000
  Pd  Pd35      1.0  0.49738  0.95162  0.58903  1.0000
  Pd  Pd36      1.0  0.83151  0.94823  0.58899  1.0000
  O   O1        1.0  0.30148  0.67939  0.68183  1.0000
  O   O2        1.0  0.77965  0.58226  0.67493  1.0000
  C   C1        1.0  0.49175  0.57509  0.66931  1.0000
  C   C2        1.0  0.54817  0.37678  0.66802  1.0000
  C   C3        1.0  0.37723  0.37076  0.66906  1.0000
  C   C4        1.0  0.22373  0.56527  0.66928  1.0000
  C   C5        1.0  0.60184  0.66578  0.67696  1.0000
  H   H1        1.0  0.68617  0.26716  0.68012  1.0000
  H   H2        1.0  0.36068  0.25487  0.68232  1.0000
  H   H3        1.0  0.09073  0.60894  0.68833  1.0000
  H   H4        1.0  0.51883  0.81668  0.68705  1.0000
