data_image0
_chemical_formula_structural       Pd16O2C5H4
_chemical_formula_sum              "Pd16 O2 C5 H4"
_cell_length_a       5.49563
_cell_length_b       5.49563
_cell_length_c       26.7307
_cell_angle_alpha    90
_cell_angle_beta     90
_cell_angle_gamma    60

_space_group_name_H-M_alt    "P 1"
_space_group_IT_number       1

loop_
  _space_group_symop_operation_xyz
  'x, y, z'

loop_
  _atom_site_type_symbol
  _atom_site_label
  _atom_site_symmetry_multiplicity
  _atom_site_fract_x
  _atom_site_fract_y
  _atom_site_fract_z
  _atom_site_occupancy
  Pd  Pd1       1.0  0.08655  0.41947  0.33669  1.0000
  Pd  Pd2       1.0  0.58655  0.41947  0.33669  1.0000
  Pd  Pd3       1.0  0.08655  0.91947  0.33669  1.0000
  Pd  Pd4       1.0  0.58655  0.91947  0.33669  1.0000
  Pd  Pd5       1.0  0.25321  0.58614  0.42062  1.0000
  Pd  Pd6       1.0  0.75321  0.58614  0.42062  1.0000
  Pd  Pd7       1.0  0.25321  0.08614  0.42062  1.0000
  Pd  Pd8       1.0  0.75321  0.08614  0.42062  1.0000
  Pd  Pd9       1.0  0.92096  0.75022  0.50399  1.0000
  Pd  Pd10      1.0  0.41718  0.74898  0.50598  1.0000
  Pd  Pd11      1.0  0.91971  0.25076  0.50433  1.0000
  Pd  Pd12      1.0  0.42349  0.24945  0.50436  1.0000
  Pd  Pd13      1.0  0.09480  0.41035  0.58764  1.0000
  Pd  Pd14      1.0  0.59371  0.40698  0.59405  1.0000
  Pd  Pd15      1.0  0.09386  0.90857  0.59088  1.0000
  Pd  Pd16      1.0  0.59132  0.90632  0.58816  1.0000
  O   O1        1.0  0.38199  0.59367  0.72402  1.0000
  O   O2        1.0  0.94364  0.00336  0.66435  1.0000
  C   C1        1.0  0.51091  0.33626  0.70020  1.0000
  C   C2        1.0  0.38193  0.18600  0.71425  1.0000
  C   C3        1.0  0.16193  0.36121  0.74774  1.0000
  C   C4        1.0  0.16958  0.60584  0.75218  1.0000
  C   C5        1.0  0.75462  0.27056  0.66985  1.0000
  H   H1        1.0  0.43721  0.97718  0.70157  1.0000
  H   H2        1.0  0.01270  0.31516  0.76586  1.0000
  H   H3        1.0  0.04195  0.80063  0.77227  1.0000
  H   H4        1.0  0.82762  0.42591  0.67209  1.0000
